<?xml version="1.0" encoding="ISO-8859-1"?>
<febio_spec version="2.5">
	<Module type="solid"/>
	<Control>
		<time_steps>10</time_steps>
		<step_size>0.1</step_size>
		<max_refs>15</max_refs>
		<max_ups>10</max_ups>
		<diverge_reform>1</diverge_reform>
		<reform_each_time_step>1</reform_each_time_step>
		<dtol>0.001</dtol>
		<etol>0.01</etol>
		<rtol>0</rtol>
		<lstol>0.9</lstol>
		<min_residual>1e-20</min_residual>
		<qnmethod>0</qnmethod>
		<time_stepper>
			<dtmin>0.01</dtmin>
			<dtmax>0.1</dtmax>
			<max_retries>5</max_retries>
			<opt_iter>10</opt_iter>
		</time_stepper>
		<analysis type="dynamic"/>
		<alpha>1</alpha>
		<beta>0.25</beta>
		<gamma>0.5</gamma>
	</Control>
	<Globals>
		<Constants>
			<T>0</T>
			<R>0</R>
			<Fc>0</Fc>
		</Constants>
	</Globals>
	<Material>
		<material id="1" name="Material2" type="neo-Hookean">
			<density>1</density>
			<E>10</E>
			<v>0.45</v>
		</material>
	</Material>
	<Geometry>
		<Nodes name="Object05">
			<node id="1">  7.5000000e-01,  0.0000000e+00,  0.0000000e+00</node>
			<node id="2">  8.1250000e-01,  0.0000000e+00,  0.0000000e+00</node>
			<node id="3">  8.7500000e-01,  0.0000000e+00,  0.0000000e+00</node>
			<node id="4">  9.3750000e-01,  0.0000000e+00,  0.0000000e+00</node>
			<node id="5">  1.0000000e+00,  0.0000000e+00,  0.0000000e+00</node>
			<node id="6">  7.4638855e-01,  7.3512854e-02,  0.0000000e+00</node>
			<node id="7">  8.0858759e-01,  7.9638925e-02,  0.0000000e+00</node>
			<node id="8">  8.7078664e-01,  8.5764996e-02,  0.0000000e+00</node>
			<node id="9">  9.3298568e-01,  9.1891067e-02,  0.0000000e+00</node>
			<node id="10">  9.9518473e-01,  9.8017139e-02,  0.0000000e+00</node>
			<node id="11">  7.3558896e-01,  1.4631774e-01,  0.0000000e+00</node>
			<node id="12">  7.9688804e-01,  1.5851088e-01,  0.0000000e+00</node>
			<node id="13">  8.5818712e-01,  1.7070403e-01,  0.0000000e+00</node>
			<node id="14">  9.1948620e-01,  1.8289717e-01,  0.0000000e+00</node>
			<node id="15">  9.8078528e-01,  1.9509032e-01,  0.0000000e+00</node>
			<node id="16">  7.1770525e-01,  2.1771350e-01,  0.0000000e+00</node>
			<node id="17">  7.7751402e-01,  2.3585630e-01,  0.0000000e+00</node>
			<node id="18">  8.3732280e-01,  2.5399909e-01,  0.0000000e+00</node>
			<node id="19">  8.9713157e-01,  2.7214188e-01,  0.0000000e+00</node>
			<node id="20">  9.5694034e-01,  2.9028467e-01,  0.0000000e+00</node>
<!-- ... 475 like lines cut -->
		</Nodes>
		<Elements type="tet4" mat="1" name="Part1">
			<elem id="1">     1,     2,     6,   166</elem>
			<elem id="2">     2,     7,     6,   166</elem>
			<elem id="3">     2,     7,   166,   172</elem>
			<elem id="4">     2,   166,   167,   172</elem>
			<elem id="5">     7,     6,   166,   171</elem>
			<elem id="6">     7,   166,   172,   171</elem>
			<elem id="7">     2,     3,     8,   168</elem>
			<elem id="8">     2,     8,     7,   173</elem>
			<elem id="9">     2,     8,   173,   168</elem>
			<elem id="10">     2,     7,   172,   173</elem>
			<elem id="11">     2,   167,   168,   173</elem>
			<elem id="12">     2,   167,   173,   172</elem>
			<elem id="13">     3,     4,     9,   169</elem>
			<elem id="14">     3,     9,     8,   174</elem>
			<elem id="15">     3,     9,   174,   169</elem>
			<elem id="16">     3,     8,   168,   174</elem>
			<elem id="17">     3,   168,   169,   174</elem>
			<elem id="18">     8,   168,   174,   173</elem>
			<elem id="19">     4,     5,    10,   170</elem>
			<elem id="20">     4,    10,     9,   175</elem>
<!-- ... 1516 like lines cut -->
		</Elements>
		<NodeSet name="FixedDisplacement1">
			<node id="1"/>
			<node id="2"/>
			<node id="3"/>
			<node id="4"/>
			<node id="5"/>
			<node id="6"/>
			<node id="7"/>
			<node id="8"/>
			<node id="9"/>
			<node id="10"/>
			<node id="11"/>
			<node id="12"/>
			<node id="13"/>
			<node id="14"/>
			<node id="15"/>
			<node id="16"/>
			<node id="17"/>
			<node id="18"/>
			<node id="19"/>
			<node id="20"/>
<!-- ... 640 like lines cut -->
		</NodeSet>
		<NodeSet name="FixedDisplacement3">
			<node id="1"/>
			<node id="2"/>
			<node id="3"/>
			<node id="4"/>
			<node id="5"/>
			<node id="161"/>
			<node id="162"/>
			<node id="163"/>
			<node id="164"/>
			<node id="165"/>
			<node id="166"/>
			<node id="167"/>
			<node id="168"/>
			<node id="169"/>
			<node id="170"/>
			<node id="326"/>
			<node id="327"/>
			<node id="328"/>
			<node id="329"/>
			<node id="330"/>
<!-- ... 40 like lines cut -->
		</NodeSet>
		<Surface name="RigidWall1">
			<tri3 id="1">   170,     5,    10</tri3>
			<tri3 id="2">    10,   175,   170</tri3>
			<tri3 id="3">   175,    10,    15</tri3>
			<tri3 id="4">    15,   180,   175</tri3>
			<tri3 id="5">   180,    15,    20</tri3>
			<tri3 id="6">    20,   185,   180</tri3>
			<tri3 id="7">   185,    20,    25</tri3>
			<tri3 id="8">    25,   190,   185</tri3>
			<tri3 id="9">   190,    25,    30</tri3>
			<tri3 id="10">    30,   195,   190</tri3>
			<tri3 id="11">   195,    30,    35</tri3>
			<tri3 id="12">    35,   200,   195</tri3>
			<tri3 id="13">   200,    35,    40</tri3>
			<tri3 id="14">    40,   205,   200</tri3>
			<tri3 id="15">   205,    40,    45</tri3>
			<tri3 id="16">    45,   210,   205</tri3>
			<tri3 id="17">   210,    45,    50</tri3>
			<tri3 id="18">    50,   215,   210</tri3>
			<tri3 id="19">   215,    50,    55</tri3>
			<tri3 id="20">    55,   220,   215</tri3>
<!-- ... 108 like lines cut -->
		</Surface>
		<Surface name="RigidWall2">
			<tri3 id="1">   170,     5,    10</tri3>
			<tri3 id="2">    10,   175,   170</tri3>
			<tri3 id="3">   175,    10,    15</tri3>
			<tri3 id="4">    15,   180,   175</tri3>
			<tri3 id="5">   180,    15,    20</tri3>
			<tri3 id="6">    20,   185,   180</tri3>
			<tri3 id="7">   185,    20,    25</tri3>
			<tri3 id="8">    25,   190,   185</tri3>
			<tri3 id="9">   190,    25,    30</tri3>
			<tri3 id="10">    30,   195,   190</tri3>
			<tri3 id="11">   195,    30,    35</tri3>
			<tri3 id="12">    35,   200,   195</tri3>
			<tri3 id="13">   200,    35,    40</tri3>
			<tri3 id="14">    40,   205,   200</tri3>
			<tri3 id="15">   205,    40,    45</tri3>
			<tri3 id="16">    45,   210,   205</tri3>
			<tri3 id="17">   210,    45,    50</tri3>
			<tri3 id="18">    50,   215,   210</tri3>
			<tri3 id="19">   215,    50,    55</tri3>
			<tri3 id="20">    55,   220,   215</tri3>
<!-- ... 108 like lines cut -->
		</Surface>
	</Geometry>
	<Boundary>
		<fix bc="z" node_set="FixedDisplacement1"/>
		<fix bc="y" node_set="FixedDisplacement3"/>
	</Boundary>
	<Contact>
		<contact type="rigid_wall" name="RigidWall1" surface="RigidWall1">
			<laugon>0</laugon>
			<tolerance>0.2</tolerance>
			<penalty>1</penalty>
			<offset lc="1">1</offset>
			<plane>1,0,0,-1</plane>
		</contact>
		<contact type="rigid_wall" name="RigidWall2" surface="RigidWall2">
			<laugon>0</laugon>
			<tolerance>0.2</tolerance>
			<penalty>1</penalty>
			<offset lc="2">1</offset>
			<plane>-1,0,0,-1</plane>
		</contact>
	</Contact>
	<LoadData>
		<loadcurve id="1" type="smooth">
			<point>0,0</point>
			<point>1,1.5</point>
		</loadcurve>
		<loadcurve id="2" type="smooth">
			<point>0,0</point>
			<point>1,1.5</point>
		</loadcurve>
	</LoadData>
	<Output>
		<plotfile type="febio">
			<var type="displacement"/>
			<var type="effective elasticity"/>
			<var type="elasticity"/>
			<var type="Lagrange strain"/>
			<var type="relative volume"/>
			<var type="stress"/>
		</plotfile>
		<logfile>
			<node_data data="x;y;z;ux;uy;uz"/>
		</logfile>
	</Output>
</febio_spec>
